
**** 05/13/22 19:51:00 ******* PSpice 17.4.0 (Nov 2018) ******* ID# 0 ********

 ** Profile: "SCHEMATIC1-test"  [ C:\Users\Evelin\Documents\facultate\an 2 sem 2\cad\senzor_de_nivel_nou-PSpiceFiles\Testare LEDuri\t


 ****     CIRCUIT DESCRIPTION


******************************************************************************




** Creating circuit file "test.cir" 
** WARNING: THIS AUTOMATICALLY GENERATED FILE MAY BE OVERWRITTEN BY SUBSEQUENT SIMULATIONS

*Libraries: 
* Profile Libraries :
* Local Libraries :
.LIB "C:/Users/Evelin/Documents/facultate/an 2 sem 2/cad/senzor_de_nivel_nou-PSpiceFiles/leduri/red_led.lib" 
* From [PSPICE NETLIST] section of C:\SPB_DATA\cdssetup\OrCAD_PSpice\17.4.0\PSpice.ini file:
.lib "nom.lib" 

*Analysis directives: 
.DC LIN V_V1 -10 10 0.1 
.OPTIONS ADVCONV
.PROBE64 V(alias(*)) I(alias(*)) W(alias(*)) D(alias(*)) NOISE(alias(*)) 
.INC "..\SCHEMATIC1.net" 



**** INCLUDING SCHEMATIC1.net ****
* source TEST
V_V1         N00092 0 0Vdc
R_R1         N00099 0  1k TC=0,0 
V_V2         N00340 0 0Vdc
R_R2         N00347 0  1k TC=0,0 
D_D1          N00092 N00099 RED_LED 

**** RESUMING test.cir ****
.END

INFO(ORPSIM-15423): Unable to find index file red_led.ind for library file red_led.lib.

INFO(ORPSIM-15422): Making new index file red_led.ind for library file red_led.lib.

Index has 1 entries from 1 file(s).

ERROR(ORPSIM-15141): Less than 2 connections at node N00347.
