
**** 05/16/22 13:10:06 ******* PSpice 17.4.0 (Nov 2018) ******* ID# 0 ********

 ** Profile: "SCHEMATIC1-temperatura"  [ c:\users\evelin\documents\facultate\an 2 sem 2\cad\senzor_de_nivel_nou-pspicefiles\senzor_de


 ****     CIRCUIT DESCRIPTION


******************************************************************************




** Creating circuit file "temperatura.cir" 
** WARNING: THIS AUTOMATICALLY GENERATED FILE MAY BE OVERWRITTEN BY SUBSEQUENT SIMULATIONS

*Libraries: 
* Profile Libraries :
* Local Libraries :
.LIB "../../../leduri/red_led.lib" 
.LIB "../../../leduri/blue_led.lib" 
.LIB "../../../leduri/green_led.lib" 
.LIB "../../../leduri/yellow_led.lib" 
* From [PSPICE NETLIST] section of C:\SPB_DATA\cdssetup\OrCAD_PSpice\17.4.0\PSpice.ini file:
.lib "nom.lib" 

*Analysis directives: 
.TRAN  0 1000ns 0 
.OPTIONS ADVCONV
.PROBE64 V(alias(*)) I(alias(*)) W(alias(*)) D(alias(*)) NOISE(alias(*)) 
.INC "..\SCHEMATIC1.net" 



**** INCLUDING SCHEMATIC1.net ****
* source SENZOR_DE_NIVEL_NOU
R_R2         0 N30894  {Rx} TC=0,0 
X_U3A         N30628 N30930 VCC -VCC N30930 LM358
R_R21         N31366 N31354  15k TC=0,0 
X_U6B         N31346 N31767 VCC 0 N31954 LM358
X_U6A         N30894 N30898 VCC -VCC N30906 LM358
R_R14         N30620 N30628  1k TC=0,0 
V_V6         N31366 0 16V
R_R8         0 N30522  1k TC=0,0 
V_V2         N30418 0 16V
R_R23         N31346 N31378  1k TC=0,0 
R_R24         0 N31378  1k TC=0,0 
R_R10         N30636 N30580  1k TC=0,0 
X_U5B         N30918 N30620 VCC -VCC N30628 LM358
R_R1         N30894 N30672  100k TC=0,0 
R_R17         N30930 N31172  1k TC=0,0 
R_R25         N31767 VCC  15k TC=0,0 
R_R7         N30522 N30418  5.6k TC=0,0 
X_U4B         N30522 N30636 VCC -VCC N30580 LM358
R_R22         0 N31354  1k TC=0,0 
X_U8A         N31172 N31378 VCC -VCC N31346 LM358
V_V1         N30672 0 16V
R_R15         0 N30918  1k TC=0,0 
V_V4         -VCC 0 -16V
V_V3         VCC 0 16V
R_R13         N30906 N30918  180 TC=0,0 
R_R11         N30898 N30906  1k TC=0,0 
R_R9         N30898 N30636  1k TC=0,0 
R_R16         N31184 N31172  1k TC=0,0 
R_R26         0 N31767  1k TC=0,0 
R_R12         N30580 N30620  180 TC=0,0 
X_U7B         N31354 N31184 VCC -VCC N31184 LM358
R_R27         N35920 N31954  620 TC=0,0 
X_U8B         N31346 N32924 VCC 0 N32145 LM358
R_R28         N34393 N32145  620 TC=0,0 
X_U9B         N31346 N32449 VCC 0 N32433 LM358
R_R31         N35904 N32433  715 TC=0,0 
R_R34         N32924 VCC  2.4k TC=0,0 
R_R35         0 N32924  1k TC=0,0 
R_R37         0 N32449  1.2k TC=0,0 
R_R36         N32449 VCC  1k TC=0,0 
R_R38         N33354 VCC  1k TC=0,0 
R_R39         0 N33354  2k TC=0,0 
X_U10B         N31346 N33354 VCC 0 N33560 LM358
R_R40         N36222 N33560  698 TC=0,0 
D_D1         N35920 N32145 BLUE_LED 
D_D2         N34393 N32433 GREEN_LED 
D_D3         N35904 N33560 RED_LED 
D_D4         N36222 0 YELLOW_LED 
R_R3         0 N30894  150k TC=0,0 
.PARAM  rx=22k

**** RESUMING temperatura.cir ****
.END

**** 05/16/22 13:10:06 ******* PSpice 17.4.0 (Nov 2018) ******* ID# 0 ********

 ** Profile: "SCHEMATIC1-temperatura"  [ c:\users\evelin\documents\facultate\an 2 sem 2\cad\senzor_de_nivel_nou-pspicefiles\senzor_de


 ****     Diode MODEL PARAMETERS


******************************************************************************




               RED_LED         BLUE_LED        GREEN_LED       YELLOW_LED      
          IS   10.000000E-21  295.240000E-15    1.103300E-15   10.000000E-21 
           N    1.7341          4.9999          2.7613          1.7433       
          RS    4.4724          9.9622          6.4183          3.3333       


               X_U3A.x_lm358.dx 
          IS  800.000000E-18 
          RS    1            


               X_U3A.x_lm358.dy 
          IS  800.000000E-18 
          RS    1.000000E-03 
         CJO   10.000000E-12 


               X_U6B.x_lm358.dx 
          IS  800.000000E-18 
          RS    1            


               X_U6B.x_lm358.dy 
          IS  800.000000E-18 
          RS    1.000000E-03 
         CJO   10.000000E-12 


               X_U6A.x_lm358.dx 
          IS  800.000000E-18 
          RS    1            


               X_U6A.x_lm358.dy 
          IS  800.000000E-18 
          RS    1.000000E-03 
         CJO   10.000000E-12 


               X_U5B.x_lm358.dx 
          IS  800.000000E-18 
          RS    1            


               X_U5B.x_lm358.dy 
          IS  800.000000E-18 
          RS    1.000000E-03 
         CJO   10.000000E-12 


               X_U4B.x_lm358.dx 
          IS  800.000000E-18 
          RS    1            


               X_U4B.x_lm358.dy 
          IS  800.000000E-18 
          RS    1.000000E-03 
         CJO   10.000000E-12 


               X_U8A.x_lm358.dx 
          IS  800.000000E-18 
          RS    1            


               X_U8A.x_lm358.dy 
          IS  800.000000E-18 
          RS    1.000000E-03 
         CJO   10.000000E-12 


               X_U7B.x_lm358.dx 
          IS  800.000000E-18 
          RS    1            


               X_U7B.x_lm358.dy 
          IS  800.000000E-18 
          RS    1.000000E-03 
         CJO   10.000000E-12 


               X_U8B.x_lm358.dx 
          IS  800.000000E-18 
          RS    1            


               X_U8B.x_lm358.dy 
          IS  800.000000E-18 
          RS    1.000000E-03 
         CJO   10.000000E-12 


               X_U9B.x_lm358.dx 
          IS  800.000000E-18 
          RS    1            


               X_U9B.x_lm358.dy 
          IS  800.000000E-18 
          RS    1.000000E-03 
         CJO   10.000000E-12 


               X_U10B.x_lm358.dx 
          IS  800.000000E-18 
          RS    1            


               X_U10B.x_lm358.dy 
          IS  800.000000E-18 
          RS    1.000000E-03 
         CJO   10.000000E-12 


**** 05/16/22 13:10:06 ******* PSpice 17.4.0 (Nov 2018) ******* ID# 0 ********

 ** Profile: "SCHEMATIC1-temperatura"  [ c:\users\evelin\documents\facultate\an 2 sem 2\cad\senzor_de_nivel_nou-pspicefiles\senzor_de


 ****     BJT MODEL PARAMETERS


******************************************************************************




               X_U3A.x_lm358.qx 
               PNP             
       LEVEL    1            
          IS  800.000000E-18 
          BF  166.7          
          NF    1            
          BR    1            
          NR    1            
         ISS    0            
          RE    0            
          RC    0            
         CJE    0            
         VJE     .75         
         CJC    0            
         VJC     .75         
         MJC     .33         
        XCJC    1            
         CJS    0            
         VJS     .75         
          KF    0            
          AF    1            
          CN    2.2          
           D     .52         


               X_U6B.x_lm358.qx 
               PNP             
       LEVEL    1            
          IS  800.000000E-18 
          BF  166.7          
          NF    1            
          BR    1            
          NR    1            
         ISS    0            
          RE    0            
          RC    0            
         CJE    0            
         VJE     .75         
         CJC    0            
         VJC     .75         
         MJC     .33         
        XCJC    1            
         CJS    0            
         VJS     .75         
          KF    0            
          AF    1            
          CN    2.2          
           D     .52         


               X_U6A.x_lm358.qx 
               PNP             
       LEVEL    1            
          IS  800.000000E-18 
          BF  166.7          
          NF    1            
          BR    1            
          NR    1            
         ISS    0            
          RE    0            
          RC    0            
         CJE    0            
         VJE     .75         
         CJC    0            
         VJC     .75         
         MJC     .33         
        XCJC    1            
         CJS    0            
         VJS     .75         
          KF    0            
          AF    1            
          CN    2.2          
           D     .52         


               X_U5B.x_lm358.qx 
               PNP             
       LEVEL    1            
          IS  800.000000E-18 
          BF  166.7          
          NF    1            
          BR    1            
          NR    1            
         ISS    0            
          RE    0            
          RC    0            
         CJE    0            
         VJE     .75         
         CJC    0            
         VJC     .75         
         MJC     .33         
        XCJC    1            
         CJS    0            
         VJS     .75         
          KF    0            
          AF    1            
          CN    2.2          
           D     .52         


               X_U4B.x_lm358.qx 
               PNP             
       LEVEL    1            
          IS  800.000000E-18 
          BF  166.7          
          NF    1            
          BR    1            
          NR    1            
         ISS    0            
          RE    0            
          RC    0            
         CJE    0            
         VJE     .75         
         CJC    0            
         VJC     .75         
         MJC     .33         
        XCJC    1            
         CJS    0            
         VJS     .75         
          KF    0            
          AF    1            
          CN    2.2          
           D     .52         


               X_U8A.x_lm358.qx 
               PNP             
       LEVEL    1            
          IS  800.000000E-18 
          BF  166.7          
          NF    1            
          BR    1            
          NR    1            
         ISS    0            
          RE    0            
          RC    0            
         CJE    0            
         VJE     .75         
         CJC    0            
         VJC     .75         
         MJC     .33         
        XCJC    1            
         CJS    0            
         VJS     .75         
          KF    0            
          AF    1            
          CN    2.2          
           D     .52         


               X_U7B.x_lm358.qx 
               PNP             
       LEVEL    1            
          IS  800.000000E-18 
          BF  166.7          
          NF    1            
          BR    1            
          NR    1            
         ISS    0            
          RE    0            
          RC    0            
         CJE    0            
         VJE     .75         
         CJC    0            
         VJC     .75         
         MJC     .33         
        XCJC    1            
         CJS    0            
         VJS     .75         
          KF    0            
          AF    1            
          CN    2.2          
           D     .52         


               X_U8B.x_lm358.qx 
               PNP             
       LEVEL    1            
          IS  800.000000E-18 
          BF  166.7          
          NF    1            
          BR    1            
          NR    1            
         ISS    0            
          RE    0            
          RC    0            
         CJE    0            
         VJE     .75         
         CJC    0            
         VJC     .75         
         MJC     .33         
        XCJC    1            
         CJS    0            
         VJS     .75         
          KF    0            
          AF    1            
          CN    2.2          
           D     .52         


               X_U9B.x_lm358.qx 
               PNP             
       LEVEL    1            
          IS  800.000000E-18 
          BF  166.7          
          NF    1            
          BR    1            
          NR    1            
         ISS    0            
          RE    0            
          RC    0            
         CJE    0            
         VJE     .75         
         CJC    0            
         VJC     .75         
         MJC     .33         
        XCJC    1            
         CJS    0            
         VJS     .75         
          KF    0            
          AF    1            
          CN    2.2          
           D     .52         


               X_U10B.x_lm358.qx 
               PNP             
       LEVEL    1            
          IS  800.000000E-18 
          BF  166.7          
          NF    1            
          BR    1            
          NR    1            
         ISS    0            
          RE    0            
          RC    0            
         CJE    0            
         VJE     .75         
         CJC    0            
         VJC     .75         
         MJC     .33         
        XCJC    1            
         CJS    0            
         VJS     .75         
          KF    0            
          AF    1            
          CN    2.2          
           D     .52         


**** 05/16/22 13:10:06 ******* PSpice 17.4.0 (Nov 2018) ******* ID# 0 ********

 ** Profile: "SCHEMATIC1-temperatura"  [ c:\users\evelin\documents\facultate\an 2 sem 2\cad\senzor_de_nivel_nou-pspicefiles\senzor_de


 ****     Current Controlled Switch MODEL PARAMETERS


******************************************************************************




               X_U3A.x_lm358.sw2 
         RON    1            
        ROFF   10.000000E+06 
         ION    0            
        IOFF   -1.000000E-06 


               X_U3A.x_lm358.sw1 
         RON    1            
        ROFF   10.000000E+06 
         ION   -1.000000E-06 
        IOFF    0            


               X_U3A.x_lm358.sw3 
         RON    1            
        ROFF   10.000000E+06 
         ION   -1.000000E-06 
        IOFF    0            


               X_U3A.x_lm358.sw4 
         RON    1            
        ROFF   10.000000E+06 
         ION    0            
        IOFF   -1.000000E-06 


               X_U6B.x_lm358.sw2 
         RON    1            
        ROFF   10.000000E+06 
         ION    0            
        IOFF   -1.000000E-06 


               X_U6B.x_lm358.sw1 
         RON    1            
        ROFF   10.000000E+06 
         ION   -1.000000E-06 
        IOFF    0            


               X_U6B.x_lm358.sw3 
         RON    1            
        ROFF   10.000000E+06 
         ION   -1.000000E-06 
        IOFF    0            


               X_U6B.x_lm358.sw4 
         RON    1            
        ROFF   10.000000E+06 
         ION    0            
        IOFF   -1.000000E-06 


               X_U6A.x_lm358.sw2 
         RON    1            
        ROFF   10.000000E+06 
         ION    0            
        IOFF   -1.000000E-06 


               X_U6A.x_lm358.sw1 
         RON    1            
        ROFF   10.000000E+06 
         ION   -1.000000E-06 
        IOFF    0            


               X_U6A.x_lm358.sw3 
         RON    1            
        ROFF   10.000000E+06 
         ION   -1.000000E-06 
        IOFF    0            


               X_U6A.x_lm358.sw4 
         RON    1            
        ROFF   10.000000E+06 
         ION    0            
        IOFF   -1.000000E-06 


               X_U5B.x_lm358.sw2 
         RON    1            
        ROFF   10.000000E+06 
         ION    0            
        IOFF   -1.000000E-06 


               X_U5B.x_lm358.sw1 
         RON    1            
        ROFF   10.000000E+06 
         ION   -1.000000E-06 
        IOFF    0            


               X_U5B.x_lm358.sw3 
         RON    1            
        ROFF   10.000000E+06 
         ION   -1.000000E-06 
        IOFF    0            


               X_U5B.x_lm358.sw4 
         RON    1            
        ROFF   10.000000E+06 
         ION    0            
        IOFF   -1.000000E-06 


               X_U4B.x_lm358.sw2 
         RON    1            
        ROFF   10.000000E+06 
         ION    0            
        IOFF   -1.000000E-06 


               X_U4B.x_lm358.sw1 
         RON    1            
        ROFF   10.000000E+06 
         ION   -1.000000E-06 
        IOFF    0            


               X_U4B.x_lm358.sw3 
         RON    1            
        ROFF   10.000000E+06 
         ION   -1.000000E-06 
        IOFF    0            


               X_U4B.x_lm358.sw4 
         RON    1            
        ROFF   10.000000E+06 
         ION    0            
        IOFF   -1.000000E-06 


               X_U8A.x_lm358.sw2 
         RON    1            
        ROFF   10.000000E+06 
         ION    0            
        IOFF   -1.000000E-06 


               X_U8A.x_lm358.sw1 
         RON    1            
        ROFF   10.000000E+06 
         ION   -1.000000E-06 
        IOFF    0            


               X_U8A.x_lm358.sw3 
         RON    1            
        ROFF   10.000000E+06 
         ION   -1.000000E-06 
        IOFF    0            


               X_U8A.x_lm358.sw4 
         RON    1            
        ROFF   10.000000E+06 
         ION    0            
        IOFF   -1.000000E-06 


               X_U7B.x_lm358.sw2 
         RON    1            
        ROFF   10.000000E+06 
         ION    0            
        IOFF   -1.000000E-06 


               X_U7B.x_lm358.sw1 
         RON    1            
        ROFF   10.000000E+06 
         ION   -1.000000E-06 
        IOFF    0            


               X_U7B.x_lm358.sw3 
         RON    1            
        ROFF   10.000000E+06 
         ION   -1.000000E-06 
        IOFF    0            


               X_U7B.x_lm358.sw4 
         RON    1            
        ROFF   10.000000E+06 
         ION    0            
        IOFF   -1.000000E-06 


               X_U8B.x_lm358.sw2 
         RON    1            
        ROFF   10.000000E+06 
         ION    0            
        IOFF   -1.000000E-06 


               X_U8B.x_lm358.sw1 
         RON    1            
        ROFF   10.000000E+06 
         ION   -1.000000E-06 
        IOFF    0            


               X_U8B.x_lm358.sw3 
         RON    1            
        ROFF   10.000000E+06 
         ION   -1.000000E-06 
        IOFF    0            


               X_U8B.x_lm358.sw4 
         RON    1            
        ROFF   10.000000E+06 
         ION    0            
        IOFF   -1.000000E-06 


               X_U9B.x_lm358.sw2 
         RON    1            
        ROFF   10.000000E+06 
         ION    0            
        IOFF   -1.000000E-06 


               X_U9B.x_lm358.sw1 
         RON    1            
        ROFF   10.000000E+06 
         ION   -1.000000E-06 
        IOFF    0            


               X_U9B.x_lm358.sw3 
         RON    1            
        ROFF   10.000000E+06 
         ION   -1.000000E-06 
        IOFF    0            


               X_U9B.x_lm358.sw4 
         RON    1            
        ROFF   10.000000E+06 
         ION    0            
        IOFF   -1.000000E-06 


               X_U10B.x_lm358.sw2 
         RON    1            
        ROFF   10.000000E+06 
         ION    0            
        IOFF   -1.000000E-06 


               X_U10B.x_lm358.sw1 
         RON    1            
        ROFF   10.000000E+06 
         ION   -1.000000E-06 
        IOFF    0            


               X_U10B.x_lm358.sw3 
         RON    1            
        ROFF   10.000000E+06 
         ION   -1.000000E-06 
        IOFF    0            


               X_U10B.x_lm358.sw4 
         RON    1            
        ROFF   10.000000E+06 
         ION    0            
        IOFF   -1.000000E-06 


**** 05/16/22 13:10:06 ******* PSpice 17.4.0 (Nov 2018) ******* ID# 0 ********

 ** Profile: "SCHEMATIC1-temperatura"  [ c:\users\evelin\documents\facultate\an 2 sem 2\cad\senzor_de_nivel_nou-pspicefiles\senzor_de


 ****     INITIAL TRANSIENT SOLUTION       TEMPERATURE =   27.000 DEG C


******************************************************************************



 NODE   VOLTAGE     NODE   VOLTAGE     NODE   VOLTAGE     NODE   VOLTAGE


(  VCC)   16.0000  ( -VCC)  -16.0000  (N30418)   16.0000 (N30522)    2.4243     

(N30580)    2.2713 (N30620)    2.3102 (N30628)    2.5267 (N30636)    2.4233     

(N30672)   16.0000 (N30894)    2.5763 (N30898)    2.5753 (N30906)    2.7272     

(N30918)    2.3112 (N30930)    2.5257 (N31172)    1.7626 (N31184)     .9995     

(N31346)    3.5236 (N31354)    1.0000 (N31366)   16.0000 (N31378)    1.7618     

(N31767)    1.0001 (N31954)   15.3000 (N32145)     .0222 (N32433)     .0057     

(N32449)    8.7273 (N32924)    4.7059 (N33354)   10.6670 (N33560)     .0057     

(N34393)     .0222 (N35904)     .0057 (N35920)    3.4323 (N36222)     .0057     

(X_U3A.x_lm358.6)-487.0E-06           (X_U3A.x_lm358.7)    2.5638               

(X_U3A.x_lm358.8)    2.5638           (X_U3A.x_lm358.9)    0.0000               

(X_U3A.x_lm358.a)   15.9990           (X_U3A.x_lm358.b)-764.6E-06               

(X_U4B.x_lm358.6)-422.9E-06           (X_U4B.x_lm358.7)    2.2528               

(X_U4B.x_lm358.8)    2.2528           (X_U4B.x_lm358.9)    0.0000               

(X_U4B.x_lm358.a) 370.1E-06           (X_U4B.x_lm358.b)  -16.0000               

(X_U5B.x_lm358.6)-479.4E-06           (X_U5B.x_lm358.7)    2.5375               

(X_U5B.x_lm358.8)    2.5375           (X_U5B.x_lm358.9)    0.0000               

(X_U5B.x_lm358.a)   16.0000           (X_U5B.x_lm358.b)-218.0E-06               

(X_U6A.x_lm358.6)-549.4E-06           (X_U6A.x_lm358.7)    2.8504               

(X_U6A.x_lm358.8)    2.8504           (X_U6A.x_lm358.9)    0.0000               

(X_U6A.x_lm358.a)   15.9980           (X_U6A.x_lm358.b)    -.0025               

(X_U6B.x_lm358.6)   -1.5856           (X_U6B.x_lm358.7)   17.3300               

(X_U6B.x_lm358.8)   17.3300           (X_U6B.x_lm358.9)    0.0000               

(X_U6B.x_lm358.a)   15.9590           (X_U6B.x_lm358.b)    -.0406               

(X_U7B.x_lm358.6)-177.5E-06           (X_U7B.x_lm358.7)     .9614               

(X_U7B.x_lm358.8)     .9614           (X_U7B.x_lm358.9)    0.0000               

(X_U7B.x_lm358.a) 764.7E-06           (X_U7B.x_lm358.b)  -15.9990               

(X_U8A.x_lm358.6)-689.4E-06           (X_U8A.x_lm358.7)    3.6117               

(X_U8A.x_lm358.8)    3.6117           (X_U8A.x_lm358.9)    0.0000               

(X_U8A.x_lm358.a)   15.9980           (X_U8A.x_lm358.b)    -.0018               

(X_U8B.x_lm358.6)    1.5059           (X_U8B.x_lm358.7)   -2.0083               

(X_U8B.x_lm358.8)   -2.0083           (X_U8B.x_lm358.9)    0.0000               

(X_U8B.x_lm358.a)     .0406           (X_U8B.x_lm358.b)     .0406               

(X_U9B.x_lm358.6)    1.5059           (X_U9B.x_lm358.7)   -2.0248               

(X_U9B.x_lm358.8)   -2.0248           (X_U9B.x_lm358.9)    0.0000               

(X_U9B.x_lm358.a)     .0406           (X_U9B.x_lm358.b)     .0406               

(X_U10B.x_lm358.6)    1.5059          (X_U10B.x_lm358.7)   -2.0248              

(X_U10B.x_lm358.8)   -2.0248          (X_U10B.x_lm358.9)    0.0000              

(X_U10B.x_lm358.a)     .0406          (X_U10B.x_lm358.b)     .0406              

(X_U3A.x_lm358.10)    3.1333          (X_U3A.x_lm358.11)  -15.9600              

(X_U3A.x_lm358.12)  -15.9610          (X_U3A.x_lm358.13)    3.1195              

(X_U3A.x_lm358.14)    3.1198          (X_U3A.x_lm358.53)   14.5000              

(X_U3A.x_lm358.54)  -15.1780          (X_U3A.x_lm358.90)     .7630              

(X_U3A.x_lm358.91)   40.0000          (X_U3A.x_lm358.92)  -40.0000              

(X_U3A.x_lm358.99)    0.0000          (X_U4B.x_lm358.10)    3.0310              

(X_U4B.x_lm358.11)  -15.9600          (X_U4B.x_lm358.12)  -15.9610              

(X_U4B.x_lm358.13)    3.0171          (X_U4B.x_lm358.14)    3.0174              

(X_U4B.x_lm358.53)   14.5000          (X_U4B.x_lm358.54)  -15.1780              

(X_U4B.x_lm358.90)    -.3685          (X_U4B.x_lm358.91)   40.0000              

(X_U4B.x_lm358.92)  -40.0000          (X_U4B.x_lm358.99)    0.0000              

(X_U5B.x_lm358.10)    2.9179          (X_U5B.x_lm358.11)  -15.9600              

(X_U5B.x_lm358.12)  -15.9610          (X_U5B.x_lm358.13)    2.9040              

(X_U5B.x_lm358.14)    2.9044          (X_U5B.x_lm358.53)   14.5000              

(X_U5B.x_lm358.54)  -15.1780          (X_U5B.x_lm358.90)     .2164              

(X_U5B.x_lm358.91)   40.0000          (X_U5B.x_lm358.92)  -40.0000              

(X_U5B.x_lm358.99)    0.0000          (X_U6A.x_lm358.10)    3.1829              

(X_U6A.x_lm358.11)  -15.9600          (X_U6A.x_lm358.12)  -15.9610              

(X_U6A.x_lm358.13)    3.1691          (X_U6A.x_lm358.14)    3.1694              

(X_U6A.x_lm358.53)   14.5000          (X_U6A.x_lm358.54)  -15.1780              

(X_U6A.x_lm358.90)    2.4631          (X_U6A.x_lm358.91)   40.0000              

(X_U6A.x_lm358.92)  -40.0000          (X_U6A.x_lm358.99)    0.0000              

(X_U6B.x_lm358.10)    1.6414          (X_U6B.x_lm358.11)     .0821              

(X_U6B.x_lm358.12) 27.40E-09          (X_U6B.x_lm358.13)    1.6127              

(X_U6B.x_lm358.14)    1.6414          (X_U6B.x_lm358.53)   14.5000              

(X_U6B.x_lm358.54)     .8220          (X_U6B.x_lm358.90)   40.6130              

(X_U6B.x_lm358.91)   40.0000          (X_U6B.x_lm358.92)  -40.0000              

(X_U6B.x_lm358.99)    8.0000          (X_U7B.x_lm358.10)    1.6073              

(X_U7B.x_lm358.11)  -15.9600          (X_U7B.x_lm358.12)  -15.9610              

(X_U7B.x_lm358.13)    1.5934          (X_U7B.x_lm358.14)    1.5935              

(X_U7B.x_lm358.53)   14.5000          (X_U7B.x_lm358.54)  -15.1780              

(X_U7B.x_lm358.90)    -.7631          (X_U7B.x_lm358.91)   40.0000              

(X_U7B.x_lm358.92)  -40.0000          (X_U7B.x_lm358.99)    0.0000              

(X_U8A.x_lm358.10)    2.3695          (X_U8A.x_lm358.11)  -15.9600              

(X_U8A.x_lm358.12)  -15.9610          (X_U8A.x_lm358.13)    2.3556              

(X_U8A.x_lm358.14)    2.3559          (X_U8A.x_lm358.53)   14.5000              

(X_U8A.x_lm358.54)  -15.1780          (X_U8A.x_lm358.90)    1.7615              

(X_U8A.x_lm358.91)   40.0000          (X_U8A.x_lm358.92)  -40.0000              

(X_U8A.x_lm358.99)    0.0000          (X_U8B.x_lm358.10)    4.1643              

(X_U8B.x_lm358.11) 47.06E-09          (X_U8B.x_lm358.12)     .0811              

(X_U8B.x_lm358.13)    4.1643          (X_U8B.x_lm358.14)    4.1359              

(X_U8B.x_lm358.53)   14.5000          (X_U8B.x_lm358.54)     .8220              

(X_U8B.x_lm358.90)  -40.6120          (X_U8B.x_lm358.91)   40.0000              

(X_U8B.x_lm358.92)  -40.0000          (X_U8B.x_lm358.99)    8.0000              

(X_U9B.x_lm358.10)    4.1643          (X_U9B.x_lm358.11) 68.39E-09              

(X_U9B.x_lm358.12)     .0811          (X_U9B.x_lm358.13)    4.1643              

(X_U9B.x_lm358.14)    4.1359          (X_U9B.x_lm358.53)   14.5000              

(X_U9B.x_lm358.54)     .8220          (X_U9B.x_lm358.90)  -40.6100              

(X_U9B.x_lm358.91)   40.0000          (X_U9B.x_lm358.92)  -40.0000              

(X_U9B.x_lm358.99)    8.0000          (X_U10B.x_lm358.10)    4.1643             

(X_U10B.x_lm358.11) 78.68E-09         (X_U10B.x_lm358.12)     .0811             

(X_U10B.x_lm358.13)    4.1643         (X_U10B.x_lm358.14)    4.1359             

(X_U10B.x_lm358.53)   14.5000         (X_U10B.x_lm358.54)     .8220             

(X_U10B.x_lm358.90)  -40.6100         (X_U10B.x_lm358.91)   40.0000             

(X_U10B.x_lm358.92)  -40.0000         (X_U10B.x_lm358.99)    8.0000         




    VOLTAGE SOURCE CURRENTS
    NAME         CURRENT

    V_V6        -1.000E-03
    V_V2        -2.424E-03
    V_V1        -1.342E-04
    V_V4         2.237E-02
    V_V3        -7.101E-02
    X_U3A.x_lm358.vb  -4.870E-09
    X_U3A.x_lm358.vc   1.198E-11
    X_U3A.x_lm358.ve   1.978E-11
    X_U3A.x_lm358.vlim   7.630E-04
    X_U3A.x_lm358.vlp  -3.924E-11
    X_U3A.x_lm358.vln  -4.077E-11
    X_U6B.x_lm358.vb  -1.586E-05
    X_U6B.x_lm358.vc  -2.147E-02
    X_U6B.x_lm358.ve   1.437E-11
    X_U6B.x_lm358.vlim   4.061E-02
    X_U6B.x_lm358.vlp   1.573E-05
    X_U6B.x_lm358.vln  -8.062E-11
    X_U6A.x_lm358.vb  -5.494E-09
    X_U6A.x_lm358.vc   1.177E-11
    X_U6A.x_lm358.ve   1.998E-11
    X_U6A.x_lm358.vlim   2.463E-03
    X_U6A.x_lm358.vlp  -3.754E-11
    X_U6A.x_lm358.vln  -4.247E-11
    X_U5B.x_lm358.vb  -4.794E-09
    X_U5B.x_lm358.vc   1.197E-11
    X_U5B.x_lm358.ve   1.978E-11
    X_U5B.x_lm358.vlim   2.164E-04
    X_U5B.x_lm358.vlp  -3.978E-11
    X_U5B.x_lm358.vln  -4.022E-11
    X_U4B.x_lm358.vb  -4.229E-09
    X_U4B.x_lm358.vc   1.223E-11
    X_U4B.x_lm358.ve   1.953E-11
    X_U4B.x_lm358.vlim  -3.685E-04
    X_U4B.x_lm358.vlp  -4.037E-11
    X_U4B.x_lm358.vln  -3.964E-11
    X_U8A.x_lm358.vb  -6.894E-09
    X_U8A.x_lm358.vc   1.098E-11
    X_U8A.x_lm358.ve   2.078E-11
    X_U8A.x_lm358.vlim   1.762E-03
    X_U8A.x_lm358.vlp  -3.824E-11
    X_U8A.x_lm358.vln  -4.177E-11
    X_U7B.x_lm358.vb  -1.775E-09
    X_U7B.x_lm358.vc   1.350E-11
    X_U7B.x_lm358.ve   1.826E-11
    X_U7B.x_lm358.vlim  -7.631E-04
    X_U7B.x_lm358.vlp  -4.076E-11
    X_U7B.x_lm358.vln  -3.924E-11
    X_U8B.x_lm358.vb   1.506E-05
    X_U8B.x_lm358.vc   1.448E-11
    X_U8B.x_lm358.ve  -2.147E-02
    X_U8B.x_lm358.vlim  -4.061E-02
    X_U8B.x_lm358.vlp  -8.061E-11
    X_U8B.x_lm358.vln   1.488E-05
    X_U9B.x_lm358.vb   1.506E-05
    X_U9B.x_lm358.vc   1.450E-11
    X_U9B.x_lm358.ve  -4.061E-02
    X_U9B.x_lm358.vlim  -4.061E-02
    X_U9B.x_lm358.vlp  -8.061E-11
    X_U9B.x_lm358.vln   1.393E-05
    X_U10B.x_lm358.vb   1.506E-05
    X_U10B.x_lm358.vc   1.450E-11
    X_U10B.x_lm358.ve  -4.061E-02
    X_U10B.x_lm358.vlim  -4.061E-02
    X_U10B.x_lm358.vlp  -8.061E-11
    X_U10B.x_lm358.vln   1.393E-05

    TOTAL POWER DISSIPATION   1.67E+00  WATTS



          JOB CONCLUDED

**** 05/16/22 13:10:06 ******* PSpice 17.4.0 (Nov 2018) ******* ID# 0 ********

 ** Profile: "SCHEMATIC1-temperatura"  [ c:\users\evelin\documents\facultate\an 2 sem 2\cad\senzor_de_nivel_nou-pspicefiles\senzor_de


 ****     JOB STATISTICS SUMMARY


******************************************************************************



  License check-out time            =       19.50
  Total job time (using Solver 1)   =         .09
